Info: SIMULATION PARAMETERS:
Info: TIMESTEP               2
Info: NUMBER OF STEPS        0
Info: STEPS PER CYCLE        10
Info: PERIODIC CELL BASIS 1  25 0 0
Info: PERIODIC CELL BASIS 2  0 25 0
Info: PERIODIC CELL BASIS 3  0 0 25
Info: PERIODIC CELL CENTER   0 0 0
Info: WRAPPING WATERS AROUND PERIODIC BOUNDARIES ON OUTPUT.
Info: WRAPPING ALL CLUSTERS AROUND PERIODIC BOUNDARIES ON OUTPUT.
Info: FIRST LDB TIMESTEP     50
Info: LAST LDB TIMESTEP     -1
Info: HOM BACKGROUND SCALING 1
Info: PME BACKGROUND SCALING 1
Info: MIN ATOMS PER PATCH    40
Info: EMPTY PATCH LOAD       40 ATOMS
Info: INITIAL TEMPERATURE    1000
Info: CENTER OF MASS MOVING INITIALLY? NO
Info: REMOVING CENTER OF MASS DRIFT DURING SIMULATION
Info: DIELECTRIC             1
Info: EXCLUDE                SCALED ONE-FOUR
Info: 1-4 ELECTROSTATICS SCALED BY 1
Info: MODIFIED 1-4 VDW PARAMETERS WILL BE USED
Info: DCD FILENAME           MDequil.dcd
Info: DCD FREQUENCY          5000
Info: DCD FIRST STEP         5000
Info: DCD FILE WILL CONTAIN UNIT CELL DATA
Info: XST FILENAME           MDequil.xst
Info: XST FREQUENCY          5000
Info: NO VELOCITY DCD OUTPUT
Info: NO FORCE DCD OUTPUT
Info: OUTPUT FILENAME        MDequil
Info: BINARY OUTPUT FILES WILL BE USED
Info: RESTART FILENAME       MDequil.restart
Info: RESTART FREQUENCY      50000
Info: BINARY RESTART FILES WILL BE USED
Info: SWITCHING ACTIVE
Info: SWITCHING ON           10
Info: SWITCHING OFF          12
Info: PAIRLIST DISTANCE      14
Info: PAIRLIST SHRINK RATE   0.01
Info: PAIRLIST GROW RATE     0.01
Info: PAIRLIST TRIGGER       0.3
Info: PAIRLISTS PER CYCLE    2
Info: PAIRLISTS ENABLED
Info: MARGIN                 0.495
Info: HYDROGEN GROUP CUTOFF  2.5
Info: PATCH DIMENSION        16.995
Info: ENERGY OUTPUT STEPS    5000
Info: ENERGY EVALUATION STEPS    5000
Info: OUTPUT ENERGY PRECISION 4
Info: OUPUT ENERGY PRECISION 4
Info: CROSSTERM ENERGY INCLUDED IN DIHEDRAL
Info: TIMING OUTPUT STEPS    50000
Info: PRESSURE OUTPUT STEPS  5000
Info: LANGEVIN DYNAMICS ACTIVE
Info: LANGEVIN TEMPERATURE   1000
Info: LANGEVIN USING BBK INTEGRATOR
Info: LANGEVIN DAMPING COEFFICIENT IS 1 INVERSE PS
Info: LANGEVIN DYNAMICS NOT APPLIED TO HYDROGENS
Info: LANGEVIN PISTON PRESSURE CONTROL ACTIVE
Info:        TARGET PRESSURE IS 1013.25 BAR
Info:     OSCILLATION PERIOD IS 200 FS
Info:             DECAY TIME IS 100 FS
Info:     PISTON TEMPERATURE IS 1000 K
Info:       PRESSURE CONTROL IS GROUP-BASED
Info:    INITIAL STRAIN RATE IS 0 0 0
Info:       CELL FLUCTUATION IS ISOTROPIC
Info: PARTICLE MESH EWALD (PME) ACTIVE
Info: PME TOLERANCE               1e-06
Info: PME EWALD COEFFICIENT       0.257952
Info: PME INTERPOLATION ORDER     4
Info: PME GRID DIMENSIONS         28 28 28
Info: PME MAXIMUM GRID SPACING    1
Info: FULL ELECTROSTATIC EVALUATION FREQUENCY      2
Info: USING VERLET I (r-RESPA) MTS SCHEME.
Info: C1 SPLITTING OF LONG RANGE ELECTROSTATICS
Info: PLACING ATOMS IN PATCHES BY HYDROGEN GROUPS
Info: RIGID BONDS TO HYDROGEN : ALL
Info:         ERROR TOLERANCE : 1e-08
Info:          MAX ITERATIONS : 100
Info: RIGID WATER USING SETTLE ALGORITHM
Info: RANDOM NUMBER SEED     1684450390
Info: USE HYDROGEN BONDS?    NO
Info: COORDINATE PDB         ../input/initial_positions.pdb
Info: STRUCTURE FILE         ../input/Au.psf
Info: PARAMETER file: CHARMM format!
Info: PARAMETERS             ../input/FF_gold.inp
Info: USING ARITHMETIC MEAN TO COMBINE L-J SIGMA PARAMETERS
Info: SUMMARY OF PARAMETERS:
Info: 0 BONDS
Info: 0 ANGLES
Info: 0 DIHEDRAL
Info: 0 IMPROPER
Info: 0 CROSSTERM
Info: 1 VDW
Info: 0 VDW_PAIRS
Info: 0 NBTHOLE_PAIRS
Info: STRUCTURE SUMMARY:
Info: 864 ATOMS
Info: 0 BONDS
Info: 0 ANGLES
Info: 0 DIHEDRALS
Info: 0 IMPROPERS
Info: 0 CROSSTERMS
Info: 0 EXCLUSIONS
Info: 0 RIGID BONDS
Info: 2592 DEGREES OF FREEDOM
Info: 864 HYDROGEN GROUPS
Info: 1 ATOMS IN LARGEST HYDROGEN GROUP
Info: 864 MIGRATION GROUPS
Info: 1 ATOMS IN LARGEST MIGRATION GROUP
Info: TOTAL MASS = 170179 amu
Info: TOTAL CHARGE = 0 e
Info: MASS DENSITY = 18.0861 g/cm^3
Info: ATOM DENSITY = 0.055296 atoms/A^3
Info: ADDED 0 IMPLICIT EXCLUSIONS
Info: NONBONDED TABLE R-SQUARED SPACING: 0.0625
Info: NONBONDED TABLE SIZE: 769 POINTS
Info: REMOVING COM VELOCITY -0.0726827 -0.0407012 -0.0189594
Info: Use 3D box decompostion in PME FFT.
Info: Updated CUDA force table with 4096 elements.
Info: Updated CUDA LJ table with 1 x 1 elements.
Info: Found 1 unique exclusion lists needing 4 bytes
TCL: Minimizing for 5000 steps
ETITLE: TS BOND ANGLE DIHED IMPRP ELECT VDW BOUNDARY MISC KINETIC TOTAL TEMP POTENTIAL TOTAL3 TEMPAVG PRESSURE GPRESSURE VOLUME PRESSAVG GPRESSAVG
ENERGY: 0 0.0000 0.0000 0.0000 0.0000 0.0000 -35950.8980 0.0000 0.0000 0.0000 -35950.8980 0.0000 -35950.8980 -35950.8980 0.0000 0.0000 -0.0000 15625.0000 0.0000 -0.0000
ENERGY: 1000 0.0000 0.0000 0.0000 0.0000 0.0000 -37918.7837 0.0000 0.0000 0.0000 -37918.7837 0.0000 -37918.7837 -37918.7837 0.0000 0.0000 0.0000 15625.0000 0.0000 0.0000
ENERGY: 2000 0.0000 0.0000 0.0000 0.0000 0.0000 -37918.7825 0.0000 0.0000 0.0000 -37918.7825 0.0000 -37918.7825 -37918.7825 0.0000 0.0000 -0.0000 15625.0000 0.0000 -0.0000
ENERGY: 3000 0.0000 0.0000 0.0000 0.0000 0.0000 -37917.1128 0.0000 0.0000 0.0000 -37917.1128 0.0000 -37917.1128 -37917.1128 0.0000 0.0000 -0.0000 15625.0000 0.0000 -0.0000
ENERGY: 4000 0.0000 0.0000 0.0000 0.0000 0.0000 -37918.7837 0.0000 0.0000 0.0000 -37918.7837 0.0000 -37918.7837 -37918.7837 0.0000 0.0000 0.0000 15625.0000 0.0000 0.0000
ENERGY: 5000 0.0000 0.0000 0.0000 0.0000 0.0000 -37918.7837 0.0000 0.0000 0.0000 -37918.7837 0.0000 -37918.7837 -37918.7837 0.0000 0.0000 0.0000 15625.0000 0.0000 0.0000
TCL: Running for 100000 steps
ETITLE: TS BOND ANGLE DIHED IMPRP ELECT VDW BOUNDARY MISC KINETIC TOTAL TEMP POTENTIAL TOTAL3 TEMPAVG PRESSURE GPRESSURE VOLUME PRESSAVG GPRESSAVG
ENERGY: 5000 0.0000 0.0000 0.0000 0.0000 0.0000 -37918.7837 0.0000 0.0000 0.0000 -37918.7837 0.0000 -37918.7837 -37918.7837 0.0000 -88379.9846 -88379.9846 15625.0000 -88379.9846 -88379.9846
ENERGY: 25000 0.0000 0.0000 0.0000 0.0000 0.0000 -35970.1058 0.0000 0.0000 2571.2168 -33398.8890 998.3759 -35970.1058 -33399.8695 1011.9858 2635.7601 2635.7601 15205.0335 1009.6767 1009.6767
ENERGY: 45000 0.0000 0.0000 0.0000 0.0000 0.0000 -35994.8097 0.0000 0.0000 2603.4342 -33391.3755 1010.8856 -35994.8097 -33393.7085 996.4902 2510.8125 2510.8125 15198.6565 1053.8513 1053.8513
ENERGY: 65000 0.0000 0.0000 0.0000 0.0000 0.0000 -35972.4168 0.0000 0.0000 2658.3245 -33314.0923 1032.1989 -35972.4168 -33311.9293 999.3487 -2872.9508 -2872.9508 15271.4280 1001.0792 1001.0792
ENERGY: 85000 0.0000 0.0000 0.0000 0.0000 0.0000 -35914.9764 0.0000 0.0000 2546.1136 -33368.8628 988.6286 -35914.9764 -33363.5053 1003.5163 3110.3418 3110.3418 15216.6222 1063.6578 1063.6578
ENERGY: 105000 0.0000 0.0000 0.0000 0.0000 0.0000 -35854.5856 0.0000 0.0000 2507.4628 -33347.1229 973.6209 -35854.5856 -33342.5707 989.6535 -6041.1303 -6041.1303 15337.3092 1028.1533 1028.1533
